tests/data/short_circuit/two_phase_ac/asym_sc_output_batch.json
[
  {
    "node":
      [
        {"id": 0, "u_pu": [0.9673876629008663, 0.9549178929785012, 0.8339083271798209], "u_angle": [0.07805179433767481, -2.1662021849445576, 2.110991260211511], "u": [83778.22913798073, 82698.3153847692, 72218.57957651102]},
        {"id": 1, "u_pu": [0.5000056291359046, 1.0000112582718093, 0.5000056291359046], "u_angle": [0.5235966077161092, -2.6179960458736837, 0.5235966077161092], "u": [2886.783845779428, 5773.567691558856, 2886.783845779428]},
        {"id": 2, "u_pu": [0.9752041366223957, 1.0000013163689014, 0.9806219331161372], "u_angle": [-0.5151708928851972, -2.6179939764293376, 1.553056015198294], "u": [5630.343707937768, 5773.510291955654, 5661.623370578531]},
        {"id": 3, "u_pu": [0.9752078865977175, 1.0000051616973995, 0.9806257039246384], "u_angle": [-0.5151721243942528, -2.6179952079383932, 1.5530547836892383], "u": [5630.365358430383, 5773.532492970088, 5661.645141351562]}
      ],
    "transformer":
      [
        {"id": 6, "i_from": [1718.5277771893477, 740.7061616979055, 2153.4016426516973], "i_from_angle": [-1.492744532457222, -2.6013782203516915, 1.3358794423451141], "i_to": [11546.917905101322, 20442.447688722837, 28710.39242003104], "i_to_angle": [2.094396238060745, 1.1403715076017291, -1.6669473577729161]}
      ],
    "line":
      [
        {"id": 7, "i_from": [30202.787769790615, 0.2207981395333886, 30202.68634435644], "i_from_angle": [0.8272378864336685, -1.2208341981266084, -2.3143612607462347], "i_to": [30202.14967448056, 0.9441317795102099, 30202.39533600832], "i_to_angle": [-2.314368179681363, -1.0067843803799248, 0.8272546574430464]},
        {"id": 8, "i_from": [0.566024974043471, 0.5804176765500174, 0.5691695547562147], "i_from_angle": [1.055624818189527, -1.0471982653552652, 3.1238517262739225], "i_to": [2.8024057144343576e-11, 2.7866400347822264e-11, 2.823131726757693e-11], "i_to_angle": [-1.219546051656051, 2.981072081387395, 0.8855827242376096]}
      ],
    "fault":
      [
        {"id": 10, "i": [46439.211749949136, 0.0, 46439.211749949136], "i_angle": [0.7253810291749323, -0.0, -2.416211624414861]}
      ],
    "shunt":
      [
        {"id": 9, "i": [0.0, 0.0, 0.0], "i_angle": [-0.0, -0.0, -0.0]}
      ],
    "source":
      [
        {"id": 4, "i": [641.9405192438861, 641.9453401381861, 1283.885859137976], "i_angle": [0.5401754334486895, 0.5402144332380979, -2.6013977201731793]},
        {"id": 5, "i": [30201.598349540753, 1.5242559305344006, 30202.017561490742], "i_angle": [0.8272202304507146, 2.1194227508258767, -2.314323900375959]}
      ]
  }
,
  {
    "node":
      [
        {"id": 0, "u_pu": [0.9673876629008663, 0.9549178929785012, 0.8339083271798209], "u_angle": [0.07805179433767481, -2.1662021849445576, 2.110991260211511], "u": [83778.22913798073, 82698.3153847692, 72218.57957651102]},
        {"id": 1, "u_pu": [0.5000056291359046, 1.0000112582718093, 0.5000056291359046], "u_angle": [0.5235966077161092, -2.6179960458736837, 0.5235966077161092], "u": [2886.783845779428, 5773.567691558856, 2886.783845779428]},
        {"id": 2, "u_pu": [0.9752041366223957, 1.0000013163689014, 0.9806219331161372], "u_angle": [-0.5151708928851972, -2.6179939764293376, 1.553056015198294], "u": [5630.343707937768, 5773.510291955654, 5661.623370578531]},
        {"id": 3, "u_pu": [0.9752078865977175, 1.0000051616973995, 0.9806257039246384], "u_angle": [-0.5151721243942528, -2.6179952079383932, 1.5530547836892383], "u": [5630.365358430383, 5773.532492970088, 5661.645141351562]}
      ],
    "transformer":
      [
        {"id": 6, "i_from": [1718.5277771893477, 740.7061616979055, 2153.4016426516973], "i_from_angle": [-1.492744532457222, -2.6013782203516915, 1.3358794423451141], "i_to": [11546.917905101322, 20442.447688722837, 28710.39242003104], "i_to_angle": [2.094396238060745, 1.1403715076017291, -1.6669473577729161]}
      ],
    "line":
      [
        {"id": 7, "i_from": [30202.787769790615, 0.2207981395333886, 30202.68634435644], "i_from_angle": [0.8272378864336685, -1.2208341981266084, -2.3143612607462347], "i_to": [30202.14967448056, 0.9441317795102099, 30202.39533600832], "i_to_angle": [-2.314368179681363, -1.0067843803799248, 0.8272546574430464]},
        {"id": 8, "i_from": [0.566024974043471, 0.5804176765500174, 0.5691695547562147], "i_from_angle": [1.055624818189527, -1.0471982653552652, 3.1238517262739225], "i_to": [2.8024057144343576e-11, 2.7866400347822264e-11, 2.823131726757693e-11], "i_to_angle": [-1.219546051656051, 2.981072081387395, 0.8855827242376096]}
      ],
    "fault":
      [
        {"id": 10, "i": [46439.211749949136, 0.0, 46439.211749949136], "i_angle": [0.7253810291749323, -0.0, -2.416211624414861]}
      ],
    "source":
      [
        {"id": 4, "i": [641.9405192438861, 641.9453401381861, 1283.885859137976], "i_angle": [0.5401754334486895, 0.5402144332380979, -2.6013977201731793]},
        {"id": 5, "i": [30201.598349540753, 1.5242559305344006, 30202.017561490742], "i_angle": [0.8272202304507146, 2.1194227508258767, -2.314323900375959]}
      ]
  }
,
  {
    "node":
      [
        {"id": 0, "u_pu": [0.8843957837125669, 0.8705419063370643, 0.833908327179821], "u_angle": [0.030467217281436348, -2.1209074998406585, 2.1109912602115104], "u": [76590.92156949309, 75391.14059468311, 72218.57957651104]},
        {"id": 1, "u_pu": [0.17957189282984462, 0.35914378565968913, 0.17957189282984454], "u_angle": [0.33841051195779065, -2.8031821416320017, 0.33841051195779115], "u": [1036.7588066420142, 2073.517613284028, 1036.7588066420137]},
        {"id": 2, "u_pu": [0.005423562661952199, 0.010847125323904399, 0.005423562661952201], "u_angle": [0.5423777235123961, -2.599214930077397, 0.5423777235123955], "u": [31.312953628449055, 62.62590725689812, 31.312953628449065]},
        {"id": 3, "u_pu": [0.00542358351730481, 0.01084716703460962, 0.00542358351730481], "u_angle": [0.5423764920033401, -2.5992161615864524, 0.5423764920033401], "u": [31.313074036883496, 62.62614807376699, 31.313074036883496]}
      ],
    "transformer":
      [
        {"id": 6, "i_from": [1571.0958270665244, 1170.6897901741602, 1681.6498621308142], "i_from_angle": [-1.5403291095134604, 2.893664069808191, 0.8679275884916784], "i_to": [16528.870106530285, 18275.02804933436, 22792.751038483275], "i_to_angle": [2.1377600559142085, 0.42133083263926036, -1.9200488875815651]}
      ],
    "line":
      [
        {"id": 7, "i_from": [6262.485002565073, 12524.970005130142, 6262.485002565069], "i_from_angle": [-0.9287448746463527, 2.212847778943441, -0.9287448746463525], "i_to": [6262.587593385082, 12525.175186770159, 6262.587593385081], "i_to_angle": [2.2128427528149084, -0.9287499007748846, 2.2128427528149084]},
        {"id": 8, "i_from": [0.0031479274950483513, 0.006295854989909528, 0.003147927494861177], "i_from_angle": [2.1131734345361624, -1.028419219021705, 2.1131734346000135], "i_to": [8.65445959859713e-14, 1.7436746845496488e-13, 1.6033692442377678e-13], "i_to_angle": [-0.7367676428983772, -2.7231913888086288, 0.9348705632601966]}
      ],
    "fault":
      [
        {"id": 10, "i": [16678.16654359642, 0.0, 16678.16654359642], "i_angle": [0.5401949334166142, -0.0, -2.6013977201731793]}
      ],
    "shunt":
      [
        {"id": 9, "i": [0.0, 0.0, 0.0], "i_angle": [-0.0, -0.0, -0.0]}
      ],
    "source":
      [
        {"id": 4, "i": [916.8452475272559, 1014.5978181509402, 1283.885859137975], "i_angle": [1.44228926196812, -0.24792858378160268, -2.6013977201731793]}
      ]
  }
,
  {
    "node":
      [
        {"id": 0, "u_pu": [0.8843957837125669, 0.8705419063370643, 0.833908327179821], "u_angle": [0.030467217281436348, -2.1209074998406585, 2.1109912602115104], "u": [76590.92156949309, 75391.14059468311, 72218.57957651104]},
        {"id": 1, "u_pu": [0.17957189282984462, 0.35914378565968913, 0.17957189282984454], "u_angle": [0.33841051195779065, -2.8031821416320017, 0.33841051195779115], "u": [1036.7588066420142, 2073.517613284028, 1036.7588066420137]},
        {"id": 2, "u_pu": [0.005423562661952199, 0.010847125323904399, 0.005423562661952201], "u_angle": [0.5423777235123961, -2.599214930077397, 0.5423777235123955], "u": [31.312953628449055, 62.62590725689812, 31.312953628449065]},
        {"id": 3, "u_pu": [0.00542358351730481, 0.01084716703460962, 0.00542358351730481], "u_angle": [0.5423764920033401, -2.5992161615864524, 0.5423764920033401], "u": [31.313074036883496, 62.62614807376699, 31.313074036883496]}
      ],
    "transformer":
      [
        {"id": 6, "i_from": [1571.0958270665244, 1170.6897901741602, 1681.6498621308142], "i_from_angle": [-1.5403291095134604, 2.893664069808191, 0.8679275884916784], "i_to": [16528.870106530285, 18275.02804933436, 22792.751038483275], "i_to_angle": [2.1377600559142085, 0.42133083263926036, -1.9200488875815651]}
      ],
    "line":
      [
        {"id": 7, "i_from": [6262.485002565073, 12524.970005130142, 6262.485002565069], "i_from_angle": [-0.9287448746463527, 2.212847778943441, -0.9287448746463525], "i_to": [6262.587593385082, 12525.175186770159, 6262.587593385081], "i_to_angle": [2.2128427528149084, -0.9287499007748846, 2.2128427528149084]},
        {"id": 8, "i_from": [0.0031479274950483513, 0.006295854989909528, 0.003147927494861177], "i_from_angle": [2.1131734345361624, -1.028419219021705, 2.1131734346000135], "i_to": [8.65445959859713e-14, 1.7436746845496488e-13, 1.6033692442377678e-13], "i_to_angle": [-0.7367676428983772, -2.7231913888086288, 0.9348705632601966]}
      ],
    "fault":
      [
        {"id": 10, "i": [16678.16654359642, 0.0, 16678.16654359642], "i_angle": [0.5401949334166142, -0.0, -2.6013977201731793]}
      ],
    "source":
      [
        {"id": 4, "i": [916.8452475272559, 1014.5978181509402, 1283.885859137975], "i_angle": [1.44228926196812, -0.24792858378160268, -2.6013977201731793]}
      ]
  }
,
  {
    "node":
      [
        {"id": 0, "u_pu": [0.9673876629008663, 0.9549178929785012, 0.8339083271798209], "u_angle": [0.07805179433767481, -2.1662021849445576, 2.110991260211511], "u": [83778.22913798073, 82698.3153847692, 72218.57957651102]},
        {"id": 1, "u_pu": [0.5000056291359046, 1.0000112582718093, 0.5000056291359046], "u_angle": [0.5235966077161092, -2.6179960458736837, 0.5235966077161092], "u": [2886.783845779428, 5773.567691558856, 2886.783845779428]},
        {"id": 2, "u_pu": [0.9752041366223957, 1.0000013163689014, 0.9806219331161372], "u_angle": [-0.5151708928851972, -2.6179939764293376, 1.553056015198294], "u": [5630.343707937768, 5773.510291955654, 5661.623370578531]},
        {"id": 3, "u_pu": [0.9752078865977175, 1.0000051616973995, 0.9806257039246384], "u_angle": [-0.5151721243942528, -2.6179952079383932, 1.5530547836892383], "u": [5630.365358430383, 5773.532492970088, 5661.645141351562]}
      ],
    "transformer":
      [
        {"id": 6, "i_from": [1718.5277771893477, 740.7061616979055, 2153.4016426516973], "i_from_angle": [-1.492744532457222, -2.6013782203516915, 1.3358794423451141], "i_to": [11546.917905101322, 20442.447688722837, 28710.39242003104], "i_to_angle": [2.094396238060745, 1.1403715076017291, -1.6669473577729161]}
      ],
    "line":
      [
        {"id": 7, "i_from": [30202.787769790615, 0.2207981395333886, 30202.68634435644], "i_from_angle": [0.8272378864336685, -1.2208341981266084, -2.3143612607462347], "i_to": [30202.14967448056, 0.9441317795102099, 30202.39533600832], "i_to_angle": [-2.314368179681363, -1.0067843803799248, 0.8272546574430464]},
        {"id": 8, "i_from": [0.566024974043471, 0.5804176765500174, 0.5691695547562147], "i_from_angle": [1.055624818189527, -1.0471982653552652, 3.1238517262739225], "i_to": [2.8024057144343576e-11, 2.7866400347822264e-11, 2.823131726757693e-11], "i_to_angle": [-1.219546051656051, 2.981072081387395, 0.8855827242376096]}
      ],
    "fault":
      [
        {"id": 10, "i": [46439.211749949136, 0.0, 46439.211749949136], "i_angle": [0.7253810291749323, -0.0, -2.416211624414861]}
      ],
    "shunt":
      [
        {"id": 9, "i": [0.0, 0.0, 0.0], "i_angle": [-0.0, -0.0, -0.0]}
      ],
    "source":
      [
        {"id": 4, "i": [641.9405192438861, 641.9453401381861, 1283.885859137976], "i_angle": [0.5401754334486895, 0.5402144332380979, -2.6013977201731793]},
        {"id": 5, "i": [30201.598349540753, 1.5242559305344006, 30202.017561490742], "i_angle": [0.8272202304507146, 2.1194227508258767, -2.314323900375959]}
      ]
  }
,
  {
    "node":
      [
        {"id": 0, "u_pu": [0.9673876629008663, 0.9549178929785012, 0.8339083271798209], "u_angle": [0.07805179433767481, -2.1662021849445576, 2.110991260211511], "u": [83778.22913798073, 82698.3153847692, 72218.57957651102]},
        {"id": 1, "u_pu": [0.5000056291359046, 1.0000112582718093, 0.5000056291359046], "u_angle": [0.5235966077161092, -2.6179960458736837, 0.5235966077161092], "u": [2886.783845779428, 5773.567691558856, 2886.783845779428]},
        {"id": 2, "u_pu": [0.9752041366223957, 1.0000013163689014, 0.9806219331161372], "u_angle": [-0.5151708928851972, -2.6179939764293376, 1.553056015198294], "u": [5630.343707937768, 5773.510291955654, 5661.623370578531]},
        {"id": 3, "u_pu": [0.9752078865977175, 1.0000051616973995, 0.9806257039246384], "u_angle": [-0.5151721243942528, -2.6179952079383932, 1.5530547836892383], "u": [5630.365358430383, 5773.532492970088, 5661.645141351562]}
      ],
    "transformer":
      [
        {"id": 6, "i_from": [1718.5277771893477, 740.7061616979055, 2153.4016426516973], "i_from_angle": [-1.492744532457222, -2.6013782203516915, 1.3358794423451141], "i_to": [11546.917905101322, 20442.447688722837, 28710.39242003104], "i_to_angle": [2.094396238060745, 1.1403715076017291, -1.6669473577729161]}
      ],
    "line":
      [
        {"id": 7, "i_from": [30202.787769790615, 0.2207981395333886, 30202.68634435644], "i_from_angle": [0.8272378864336685, -1.2208341981266084, -2.3143612607462347], "i_to": [30202.14967448056, 0.9441317795102099, 30202.39533600832], "i_to_angle": [-2.314368179681363, -1.0067843803799248, 0.8272546574430464]},
        {"id": 8, "i_from": [0.566024974043471, 0.5804176765500174, 0.5691695547562147], "i_from_angle": [1.055624818189527, -1.0471982653552652, 3.1238517262739225], "i_to": [2.8024057144343576e-11, 2.7866400347822264e-11, 2.823131726757693e-11], "i_to_angle": [-1.219546051656051, 2.981072081387395, 0.8855827242376096]}
      ],
    "fault":
      [
        {"id": 10, "i": [46439.211749949136, 0.0, 46439.211749949136], "i_angle": [0.7253810291749323, -0.0, -2.416211624414861]}
      ],
    "source":
      [
        {"id": 4, "i": [641.9405192438861, 641.9453401381861, 1283.885859137976], "i_angle": [0.5401754334486895, 0.5402144332380979, -2.6013977201731793]},
        {"id": 5, "i": [30201.598349540753, 1.5242559305344006, 30202.017561490742], "i_angle": [0.8272202304507146, 2.1194227508258767, -2.314323900375959]}
      ]
  }
,
  {
    "node":
      [
        {"id": 0, "u_pu": [0.8843957837125669, 0.8705419063370643, 0.833908327179821], "u_angle": [0.030467217281436348, -2.1209074998406585, 2.1109912602115104], "u": [76590.92156949309, 75391.14059468311, 72218.57957651104]},
        {"id": 1, "u_pu": [0.17957189282984462, 0.35914378565968913, 0.17957189282984454], "u_angle": [0.33841051195779065, -2.8031821416320017, 0.33841051195779115], "u": [1036.7588066420142, 2073.517613284028, 1036.7588066420137]},
        {"id": 2, "u_pu": [0.005423562661952199, 0.010847125323904399, 0.005423562661952201], "u_angle": [0.5423777235123961, -2.599214930077397, 0.5423777235123955], "u": [31.312953628449055, 62.62590725689812, 31.312953628449065]},
        {"id": 3, "u_pu": [0.00542358351730481, 0.01084716703460962, 0.00542358351730481], "u_angle": [0.5423764920033401, -2.5992161615864524, 0.5423764920033401], "u": [31.313074036883496, 62.62614807376699, 31.313074036883496]}
      ],
    "transformer":
      [
        {"id": 6, "i_from": [1571.0958270665244, 1170.6897901741602, 1681.6498621308142], "i_from_angle": [-1.5403291095134604, 2.893664069808191, 0.8679275884916784], "i_to": [16528.870106530285, 18275.02804933436, 22792.751038483275], "i_to_angle": [2.1377600559142085, 0.42133083263926036, -1.9200488875815651]}
      ],
    "line":
      [
        {"id": 7, "i_from": [6262.485002565073, 12524.970005130142, 6262.485002565069], "i_from_angle": [-0.9287448746463527, 2.212847778943441, -0.9287448746463525], "i_to": [6262.587593385082, 12525.175186770159, 6262.587593385081], "i_to_angle": [2.2128427528149084, -0.9287499007748846, 2.2128427528149084]},
        {"id": 8, "i_from": [0.0031479274950483513, 0.006295854989909528, 0.003147927494861177], "i_from_angle": [2.1131734345361624, -1.028419219021705, 2.1131734346000135], "i_to": [8.65445959859713e-14, 1.7436746845496488e-13, 1.6033692442377678e-13], "i_to_angle": [-0.7367676428983772, -2.7231913888086288, 0.9348705632601966]}
      ],
    "fault":
      [
        {"id": 10, "i": [16678.16654359642, 0.0, 16678.16654359642], "i_angle": [0.5401949334166142, -0.0, -2.6013977201731793]}
      ],
    "shunt":
      [
        {"id": 9, "i": [0.0, 0.0, 0.0], "i_angle": [-0.0, -0.0, -0.0]}
      ],
    "source":
      [
        {"id": 4, "i": [916.8452475272559, 1014.5978181509402, 1283.885859137975], "i_angle": [1.44228926196812, -0.24792858378160268, -2.6013977201731793]}
      ]
  }
,
  {
    "node":
      [
        {"id": 0, "u_pu": [0.8843957837125669, 0.8705419063370643, 0.833908327179821], "u_angle": [0.030467217281436348, -2.1209074998406585, 2.1109912602115104], "u": [76590.92156949309, 75391.14059468311, 72218.57957651104]},
        {"id": 1, "u_pu": [0.17957189282984462, 0.35914378565968913, 0.17957189282984454], "u_angle": [0.33841051195779065, -2.8031821416320017, 0.33841051195779115], "u": [1036.7588066420142, 2073.517613284028, 1036.7588066420137]},
        {"id": 2, "u_pu": [0.005423562661952199, 0.010847125323904399, 0.005423562661952201], "u_angle": [0.5423777235123961, -2.599214930077397, 0.5423777235123955], "u": [31.312953628449055, 62.62590725689812, 31.312953628449065]},
        {"id": 3, "u_pu": [0.00542358351730481, 0.01084716703460962, 0.00542358351730481], "u_angle": [0.5423764920033401, -2.5992161615864524, 0.5423764920033401], "u": [31.313074036883496, 62.62614807376699, 31.313074036883496]}
      ],
    "transformer":
      [
        {"id": 6, "i_from": [1571.0958270665244, 1170.6897901741602, 1681.6498621308142], "i_from_angle": [-1.5403291095134604, 2.893664069808191, 0.8679275884916784], "i_to": [16528.870106530285, 18275.02804933436, 22792.751038483275], "i_to_angle": [2.1377600559142085, 0.42133083263926036, -1.9200488875815651]}
      ],
    "line":
      [
        {"id": 7, "i_from": [6262.485002565073, 12524.970005130142, 6262.485002565069], "i_from_angle": [-0.9287448746463527, 2.212847778943441, -0.9287448746463525], "i_to": [6262.587593385082, 12525.175186770159, 6262.587593385081], "i_to_angle": [2.2128427528149084, -0.9287499007748846, 2.2128427528149084]},
        {"id": 8, "i_from": [0.0031479274950483513, 0.006295854989909528, 0.003147927494861177], "i_from_angle": [2.1131734345361624, -1.028419219021705, 2.1131734346000135], "i_to": [8.65445959859713e-14, 1.7436746845496488e-13, 1.6033692442377678e-13], "i_to_angle": [-0.7367676428983772, -2.7231913888086288, 0.9348705632601966]}
      ],
    "fault":
      [
        {"id": 10, "i": [16678.16654359642, 0.0, 16678.16654359642], "i_angle": [0.5401949334166142, -0.0, -2.6013977201731793]}
      ],
    "source":
      [
        {"id": 4, "i": [916.8452475272559, 1014.5978181509402, 1283.885859137975], "i_angle": [1.44228926196812, -0.24792858378160268, -2.6013977201731793]}
      ]
  }
,
  {
    "node":
      [
        {"id": 0, "u_pu": [0.9673876629008663, 0.9549178929785012, 0.8339083271798209], "u_angle": [0.07805179433767481, -2.1662021849445576, 2.110991260211511], "u": [83778.22913798073, 82698.3153847692, 72218.57957651102]},
        {"id": 1, "u_pu": [0.5000056291359046, 1.0000112582718093, 0.5000056291359046], "u_angle": [0.5235966077161092, -2.6179960458736837, 0.5235966077161092], "u": [2886.783845779428, 5773.567691558856, 2886.783845779428]},
        {"id": 2, "u_pu": [0.9752041366223957, 1.0000013163689014, 0.9806219331161372], "u_angle": [-0.5151708928851972, -2.6179939764293376, 1.553056015198294], "u": [5630.343707937768, 5773.510291955654, 5661.623370578531]},
        {"id": 3, "u_pu": [0.9752078865977175, 1.0000051616973995, 0.9806257039246384], "u_angle": [-0.5151721243942528, -2.6179952079383932, 1.5530547836892383], "u": [5630.365358430383, 5773.532492970088, 5661.645141351562]}
      ],
    "transformer":
      [
        {"id": 6, "i_from": [1718.5277771893477, 740.7061616979055, 2153.4016426516973], "i_from_angle": [-1.492744532457222, -2.6013782203516915, 1.3358794423451141], "i_to": [11546.917905101322, 20442.447688722837, 28710.39242003104], "i_to_angle": [2.094396238060745, 1.1403715076017291, -1.6669473577729161]}
      ],
    "line":
      [
        {"id": 7, "i_from": [30202.787769790615, 0.2207981395333886, 30202.68634435644], "i_from_angle": [0.8272378864336685, -1.2208341981266084, -2.3143612607462347], "i_to": [30202.14967448056, 0.9441317795102099, 30202.39533600832], "i_to_angle": [-2.314368179681363, -1.0067843803799248, 0.8272546574430464]},
        {"id": 8, "i_from": [0.566024974043471, 0.5804176765500174, 0.5691695547562147], "i_from_angle": [1.055624818189527, -1.0471982653552652, 3.1238517262739225], "i_to": [2.8024057144343576e-11, 2.7866400347822264e-11, 2.823131726757693e-11], "i_to_angle": [-1.219546051656051, 2.981072081387395, 0.8855827242376096]}
      ],
    "fault":
      [
        {"id": 10, "i": [46439.211749949136, 0.0, 46439.211749949136], "i_angle": [0.7253810291749323, -0.0, -2.416211624414861]}
      ],
    "shunt":
      [
        {"id": 9, "i": [0.0, 0.0, 0.0], "i_angle": [-0.0, -0.0, -0.0]}
      ],
    "source":
      [
        {"id": 4, "i": [641.9405192438861, 641.9453401381861, 1283.885859137976], "i_angle": [0.5401754334486895, 0.5402144332380979, -2.6013977201731793]},
        {"id": 5, "i": [30201.598349540753, 1.5242559305344006, 30202.017561490742], "i_angle": [0.8272202304507146, 2.1194227508258767, -2.314323900375959]}
      ]
  }
,
  {
    "node":
      [
        {"id": 0, "u_pu": [0.9673876629008663, 0.9549178929785012, 0.8339083271798209], "u_angle": [0.07805179433767481, -2.1662021849445576, 2.110991260211511], "u": [83778.22913798073, 82698.3153847692, 72218.57957651102]},
        {"id": 1, "u_pu": [0.5000056291359046, 1.0000112582718093, 0.5000056291359046], "u_angle": [0.5235966077161092, -2.6179960458736837, 0.5235966077161092], "u": [2886.783845779428, 5773.567691558856, 2886.783845779428]},
        {"id": 2, "u_pu": [0.9752041366223957, 1.0000013163689014, 0.9806219331161372], "u_angle": [-0.5151708928851972, -2.6179939764293376, 1.553056015198294], "u": [5630.343707937768, 5773.510291955654, 5661.623370578531]},
        {"id": 3, "u_pu": [0.9752078865977175, 1.0000051616973995, 0.9806257039246384], "u_angle": [-0.5151721243942528, -2.6179952079383932, 1.5530547836892383], "u": [5630.365358430383, 5773.532492970088, 5661.645141351562]}
      ],
    "transformer":
      [
        {"id": 6, "i_from": [1718.5277771893477, 740.7061616979055, 2153.4016426516973], "i_from_angle": [-1.492744532457222, -2.6013782203516915, 1.3358794423451141], "i_to": [11546.917905101322, 20442.447688722837, 28710.39242003104], "i_to_angle": [2.094396238060745, 1.1403715076017291, -1.6669473577729161]}
      ],
    "line":
      [
        {"id": 7, "i_from": [30202.787769790615, 0.2207981395333886, 30202.68634435644], "i_from_angle": [0.8272378864336685, -1.2208341981266084, -2.3143612607462347], "i_to": [30202.14967448056, 0.9441317795102099, 30202.39533600832], "i_to_angle": [-2.314368179681363, -1.0067843803799248, 0.8272546574430464]},
        {"id": 8, "i_from": [0.566024974043471, 0.5804176765500174, 0.5691695547562147], "i_from_angle": [1.055624818189527, -1.0471982653552652, 3.1238517262739225], "i_to": [2.8024057144343576e-11, 2.7866400347822264e-11, 2.823131726757693e-11], "i_to_angle": [-1.219546051656051, 2.981072081387395, 0.8855827242376096]}
      ],
    "fault":
      [
        {"id": 10, "i": [46439.211749949136, 0.0, 46439.211749949136], "i_angle": [0.7253810291749323, -0.0, -2.416211624414861]}
      ],
    "source":
      [
        {"id": 4, "i": [641.9405192438861, 641.9453401381861, 1283.885859137976], "i_angle": [0.5401754334486895, 0.5402144332380979, -2.6013977201731793]},
        {"id": 5, "i": [30201.598349540753, 1.5242559305344006, 30202.017561490742], "i_angle": [0.8272202304507146, 2.1194227508258767, -2.314323900375959]}
      ]
  }
,
  {
    "node":
      [
        {"id": 0, "u_pu": [0.8843957837125669, 0.8705419063370643, 0.833908327179821], "u_angle": [0.030467217281436348, -2.1209074998406585, 2.1109912602115104], "u": [76590.92156949309, 75391.14059468311, 72218.57957651104]},
        {"id": 1, "u_pu": [0.17957189282984462, 0.35914378565968913, 0.17957189282984454], "u_angle": [0.33841051195779065, -2.8031821416320017, 0.33841051195779115], "u": [1036.7588066420142, 2073.517613284028, 1036.7588066420137]},
        {"id": 2, "u_pu": [0.005423562661952199, 0.010847125323904399, 0.005423562661952201], "u_angle": [0.5423777235123961, -2.599214930077397, 0.5423777235123955], "u": [31.312953628449055, 62.62590725689812, 31.312953628449065]},
        {"id": 3, "u_pu": [0.00542358351730481, 0.01084716703460962, 0.00542358351730481], "u_angle": [0.5423764920033401, -2.5992161615864524, 0.5423764920033401], "u": [31.313074036883496, 62.62614807376699, 31.313074036883496]}
      ],
    "transformer":
      [
        {"id": 6, "i_from": [1571.0958270665244, 1170.6897901741602, 1681.6498621308142], "i_from_angle": [-1.5403291095134604, 2.893664069808191, 0.8679275884916784], "i_to": [16528.870106530285, 18275.02804933436, 22792.751038483275], "i_to_angle": [2.1377600559142085, 0.42133083263926036, -1.9200488875815651]}
      ],
    "line":
      [
        {"id": 7, "i_from": [6262.485002565073, 12524.970005130142, 6262.485002565069], "i_from_angle": [-0.9287448746463527, 2.212847778943441, -0.9287448746463525], "i_to": [6262.587593385082, 12525.175186770159, 6262.587593385081], "i_to_angle": [2.2128427528149084, -0.9287499007748846, 2.2128427528149084]},
        {"id": 8, "i_from": [0.0031479274950483513, 0.006295854989909528, 0.003147927494861177], "i_from_angle": [2.1131734345361624, -1.028419219021705, 2.1131734346000135], "i_to": [8.65445959859713e-14, 1.7436746845496488e-13, 1.6033692442377678e-13], "i_to_angle": [-0.7367676428983772, -2.7231913888086288, 0.9348705632601966]}
      ],
    "fault":
      [
        {"id": 10, "i": [16678.16654359642, 0.0, 16678.16654359642], "i_angle": [0.5401949334166142, -0.0, -2.6013977201731793]}
      ],
    "shunt":
      [
        {"id": 9, "i": [0.0, 0.0, 0.0], "i_angle": [-0.0, -0.0, -0.0]}
      ],
    "source":
      [
        {"id": 4, "i": [916.8452475272559, 1014.5978181509402, 1283.885859137975], "i_angle": [1.44228926196812, -0.24792858378160268, -2.6013977201731793]}
      ]
  }
,
  {
    "node":
      [
        {"id": 0, "u_pu": [0.8843957837125669, 0.8705419063370643, 0.833908327179821], "u_angle": [0.030467217281436348, -2.1209074998406585, 2.1109912602115104], "u": [76590.92156949309, 75391.14059468311, 72218.57957651104]},
        {"id": 1, "u_pu": [0.17957189282984462, 0.35914378565968913, 0.17957189282984454], "u_angle": [0.33841051195779065, -2.8031821416320017, 0.33841051195779115], "u": [1036.7588066420142, 2073.517613284028, 1036.7588066420137]},
        {"id": 2, "u_pu": [0.005423562661952199, 0.010847125323904399, 0.005423562661952201], "u_angle": [0.5423777235123961, -2.599214930077397, 0.5423777235123955], "u": [31.312953628449055, 62.62590725689812, 31.312953628449065]},
        {"id": 3, "u_pu": [0.00542358351730481, 0.01084716703460962, 0.00542358351730481], "u_angle": [0.5423764920033401, -2.5992161615864524, 0.5423764920033401], "u": [31.313074036883496, 62.62614807376699, 31.313074036883496]}
      ],
    "transformer":
      [
        {"id": 6, "i_from": [1571.0958270665244, 1170.6897901741602, 1681.6498621308142], "i_from_angle": [-1.5403291095134604, 2.893664069808191, 0.8679275884916784], "i_to": [16528.870106530285, 18275.02804933436, 22792.751038483275], "i_to_angle": [2.1377600559142085, 0.42133083263926036, -1.9200488875815651]}
      ],
    "line":
      [
        {"id": 7, "i_from": [6262.485002565073, 12524.970005130142, 6262.485002565069], "i_from_angle": [-0.9287448746463527, 2.212847778943441, -0.9287448746463525], "i_to": [6262.587593385082, 12525.175186770159, 6262.587593385081], "i_to_angle": [2.2128427528149084, -0.9287499007748846, 2.2128427528149084]},
        {"id": 8, "i_from": [0.0031479274950483513, 0.006295854989909528, 0.003147927494861177], "i_from_angle": [2.1131734345361624, -1.028419219021705, 2.1131734346000135], "i_to": [8.65445959859713e-14, 1.7436746845496488e-13, 1.6033692442377678e-13], "i_to_angle": [-0.7367676428983772, -2.7231913888086288, 0.9348705632601966]}
      ],
    "fault":
      [
        {"id": 10, "i": [16678.16654359642, 0.0, 16678.16654359642], "i_angle": [0.5401949334166142, -0.0, -2.6013977201731793]}
      ],
    "source":
      [
        {"id": 4, "i": [916.8452475272559, 1014.5978181509402, 1283.885859137975], "i_angle": [1.44228926196812, -0.24792858378160268, -2.6013977201731793]}
      ]
  }
,
  {
    "node":
      [
        {"id": 0, "u_pu": [0.9682937882503522, 0.9819023215775382, 0.8963475954005792], "u_angle": [0.04246806760953227, -2.144085903547113, 2.077299437845528], "u": [83856.7018951475, 85035.23545210653, 77625.97882379973]},
        {"id": 1, "u_pu": [0.5039758513672393, 1.0000112582718093, 0.7085250818780489], "u_angle": [-0.20506626263182495, -2.6179960458736837, 1.01701245903611], "u": [2909.7059345194643, 5773.567691558856, 4090.6714674989316]},
...