tests/data/short_circuit/two_phase_ac/sc_output_batch.json
[
  {
    "node":
      [
        {"id": 0, "u_pu": [0.9673876629008663, 0.9549178929785012, 0.8339083271798209], "u_angle": [0.07805179433767481, -2.1662021849445576, 2.110991260211511], "u": [83778.22913798073, 82698.3153847692, 72218.57957651102]},
        {"id": 1, "u_pu": [0.5000056291359047, 1.0000112582718093, 0.5000056291359047], "u_angle": [0.5235966077161087, -2.6179960458736837, 0.5235966077161094], "u": [2886.7838457794282, 5773.567691558856, 2886.7838457794282]},
        {"id": 2, "u_pu": [0.9752041366223957, 1.0000013163689014, 0.980621933116137], "u_angle": [-0.5151708928851972, -2.6179939764293376, 1.553056015198294], "u": [5630.343707937768, 5773.510291955654, 5661.623370578529]},
        {"id": 3, "u_pu": [0.9752078865977175, 1.0000051616973995, 0.9806257039246384], "u_angle": [-0.5151721243942528, -2.6179952079383932, 1.5530547836892383], "u": [5630.365358430383, 5773.532492970088, 5661.645141351562]}
      ],
    "transformer":
      [
        {"id": 6, "i_from": [1718.5277771893477, 740.7061616979057, 2153.4016426516973], "i_from_angle": [-1.4927445324572217, -2.6013782203516915, 1.3358794423451144], "i_to": [11546.917905101322, 20442.447688722834, 28710.39242003104], "i_to_angle": [2.094396238060745, 1.1403715076017291, -1.666947357772916]}
      ],
    "line":
      [
        {"id": 7, "i_from": [30202.78776979061, 0.22079813953139946, 30202.68634435644], "i_from_angle": [0.8272378864336685, -1.220834198139001, -2.3143612607462343], "i_to": [30202.14967448055, 0.9441317795134971, 30202.395336008314], "i_to_angle": [-2.314368179681363, -1.0067843803790792, 0.8272546574430465]},
        {"id": 8, "i_from": [0.5660249740436999, 0.5804176765498911, 0.5691695547561084], "i_from_angle": [1.0556248181894992, -1.0471982653555947, 3.12385172627428], "i_to": [2.821133880760715e-11, 2.7620111656731772e-11, 2.8293876292421683e-11], "i_to_angle": [-1.2257738947498023, 2.9785029211307084, 0.8943804593933095]}
      ],
    "fault":
      [
        {"id": 10, "i": [46439.21174994912, 0.0, 46439.21174994912], "i_angle": [0.7253810291749323, -0.0, -2.416211624414861]}
      ],
    "shunt":
      [
        {"id": 9, "i": [0.0, 0.0, 0.0], "i_angle": [-0.0, -0.0, -0.0]}
      ],
    "source":
      [
        {"id": 4, "i": [641.9405192438862, 641.9453401381859, 1283.8858591379762], "i_angle": [0.5401754334486896, 0.5402144332380979, -2.6013977201731793]},
        {"id": 5, "i": [30201.598349540745, 1.5242559305299486, 30202.01756149075], "i_angle": [0.8272202304507148, 2.1194227508267383, -2.314323900375959]}
      ]
  }
,
  {
    "node":
      [
        {"id": 0, "u_pu": [0.9673876629008663, 0.9549178929785012, 0.8339083271798209], "u_angle": [0.07805179433767481, -2.1662021849445576, 2.110991260211511], "u": [83778.22913798073, 82698.3153847692, 72218.57957651102]},
        {"id": 1, "u_pu": [0.5000056291359047, 1.0000112582718093, 0.5000056291359047], "u_angle": [0.5235966077161087, -2.6179960458736837, 0.5235966077161094], "u": [2886.7838457794282, 5773.567691558856, 2886.7838457794282]},
        {"id": 2, "u_pu": [0.9752041366223957, 1.0000013163689014, 0.980621933116137], "u_angle": [-0.5151708928851972, -2.6179939764293376, 1.553056015198294], "u": [5630.343707937768, 5773.510291955654, 5661.623370578529]},
        {"id": 3, "u_pu": [0.9752078865977175, 1.0000051616973995, 0.9806257039246384], "u_angle": [-0.5151721243942528, -2.6179952079383932, 1.5530547836892383], "u": [5630.365358430383, 5773.532492970088, 5661.645141351562]}
      ],
    "transformer":
      [
        {"id": 6, "i_from": [1718.5277771893477, 740.7061616979057, 2153.4016426516973], "i_from_angle": [-1.4927445324572217, -2.6013782203516915, 1.3358794423451144], "i_to": [11546.917905101322, 20442.447688722834, 28710.39242003104], "i_to_angle": [2.094396238060745, 1.1403715076017291, -1.666947357772916]}
      ],
    "line":
      [
        {"id": 7, "i_from": [30202.78776979061, 0.22079813953139946, 30202.68634435644], "i_from_angle": [0.8272378864336685, -1.220834198139001, -2.3143612607462343], "i_to": [30202.14967448055, 0.9441317795134971, 30202.395336008314], "i_to_angle": [-2.314368179681363, -1.0067843803790792, 0.8272546574430465]},
        {"id": 8, "i_from": [0.5660249740436999, 0.5804176765498911, 0.5691695547561084], "i_from_angle": [1.0556248181894992, -1.0471982653555947, 3.12385172627428], "i_to": [2.821133880760715e-11, 2.7620111656731772e-11, 2.8293876292421683e-11], "i_to_angle": [-1.2257738947498023, 2.9785029211307084, 0.8943804593933095]}
      ],
    "fault":
      [
        {"id": 10, "i": [46439.21174994912, 0.0, 46439.21174994912], "i_angle": [0.7253810291749323, -0.0, -2.416211624414861]}
      ],
    "source":
      [
        {"id": 4, "i": [641.9405192438862, 641.9453401381859, 1283.8858591379762], "i_angle": [0.5401754334486896, 0.5402144332380979, -2.6013977201731793]},
        {"id": 5, "i": [30201.598349540745, 1.5242559305299486, 30202.01756149075], "i_angle": [0.8272202304507148, 2.1194227508267383, -2.314323900375959]}
      ]
  }
,
  {
    "node":
      [
        {"id": 0, "u_pu": [0.8843957837125669, 0.8705419063370643, 0.833908327179821], "u_angle": [0.03046721728143641, -2.1209074998406585, 2.110991260211511], "u": [76590.92156949309, 75391.14059468311, 72218.57957651104]},
        {"id": 1, "u_pu": [0.17957189282984456, 0.35914378565968913, 0.17957189282984462], "u_angle": [0.3384105119577907, -2.8031821416320017, 0.33841051195779137], "u": [1036.758806642014, 2073.517613284028, 1036.7588066420142]},
        {"id": 2, "u_pu": [0.005423562661952199, 0.010847125323904395, 0.005423562661952199], "u_angle": [0.5423777235123961, -2.599214930077397, 0.5423777235123961], "u": [31.312953628449055, 62.6259072568981, 31.312953628449055]},
        {"id": 3, "u_pu": [0.0054235835173048075, 0.010847167034609615, 0.005423583517304809], "u_angle": [0.5423764920033406, -2.5992161615864524, 0.5423764920033401], "u": [31.31307403688348, 62.62614807376696, 31.313074036883492]}
      ],
    "transformer":
      [
        {"id": 6, "i_from": [1571.0958270665244, 1170.6897901741602, 1681.6498621308142], "i_from_angle": [-1.5403291095134601, 2.893664069808191, 0.8679275884916784], "i_to": [16528.870106530285, 18275.02804933436, 22792.75103848328], "i_to_angle": [2.1377600559142085, 0.42133083263926036, -1.920048887581565]}
      ],
    "line":
      [
        {"id": 7, "i_from": [6262.48500256507, 12524.970005130142, 6262.485002565073], "i_from_angle": [-0.9287448746463528, 2.212847778943441, -0.9287448746463522], "i_to": [6262.587593385079, 12525.175186770162, 6262.587593385083], "i_to_angle": [2.212842752814908, -0.9287499007748845, 2.212842752814909]},
        {"id": 8, "i_from": [0.0031479274947687806, 0.006295854989759518, 0.0031479274949907372], "i_from_angle": [2.11317343453976, -1.0284192190627879, 2.11317343451425], "i_to": [1.727089441667484e-13, 2.0869043056421321e-13, 1.1784592668312604e-13], "i_to_angle": [2.2032867564648795, -0.33825082560260455, -2.5050648313873203]}
      ],
    "fault":
      [
        {"id": 10, "i": [16678.166543596417, 0.0, 16678.166543596417], "i_angle": [0.5401949334166143, -0.0, -2.601397720173179]}
      ],
    "shunt":
      [
        {"id": 9, "i": [0.0, 0.0, 0.0], "i_angle": [-0.0, -0.0, -0.0]}
      ],
    "source":
      [
        {"id": 4, "i": [916.8452475272559, 1014.5978181509402, 1283.885859137975], "i_angle": [1.44228926196812, -0.24792858378160268, -2.6013977201731793]}
      ]
  }
,
  {
    "node":
      [
        {"id": 0, "u_pu": [0.8843957837125669, 0.8705419063370643, 0.833908327179821], "u_angle": [0.03046721728143641, -2.1209074998406585, 2.110991260211511], "u": [76590.92156949309, 75391.14059468311, 72218.57957651104]},
        {"id": 1, "u_pu": [0.17957189282984456, 0.35914378565968913, 0.17957189282984462], "u_angle": [0.3384105119577907, -2.8031821416320017, 0.33841051195779137], "u": [1036.758806642014, 2073.517613284028, 1036.7588066420142]},
        {"id": 2, "u_pu": [0.005423562661952199, 0.010847125323904395, 0.005423562661952199], "u_angle": [0.5423777235123961, -2.599214930077397, 0.5423777235123961], "u": [31.312953628449055, 62.6259072568981, 31.312953628449055]},
        {"id": 3, "u_pu": [0.0054235835173048075, 0.010847167034609615, 0.005423583517304809], "u_angle": [0.5423764920033406, -2.5992161615864524, 0.5423764920033401], "u": [31.31307403688348, 62.62614807376696, 31.313074036883492]}
      ],
    "transformer":
      [
        {"id": 6, "i_from": [1571.0958270665244, 1170.6897901741602, 1681.6498621308142], "i_from_angle": [-1.5403291095134601, 2.893664069808191, 0.8679275884916784], "i_to": [16528.870106530285, 18275.02804933436, 22792.75103848328], "i_to_angle": [2.1377600559142085, 0.42133083263926036, -1.920048887581565]}
      ],
    "line":
      [
        {"id": 7, "i_from": [6262.48500256507, 12524.970005130142, 6262.485002565073], "i_from_angle": [-0.9287448746463528, 2.212847778943441, -0.9287448746463522], "i_to": [6262.587593385079, 12525.175186770162, 6262.587593385083], "i_to_angle": [2.212842752814908, -0.9287499007748845, 2.212842752814909]},
        {"id": 8, "i_from": [0.0031479274947687806, 0.006295854989759518, 0.0031479274949907372], "i_from_angle": [2.11317343453976, -1.0284192190627879, 2.11317343451425], "i_to": [1.727089441667484e-13, 2.0869043056421321e-13, 1.1784592668312604e-13], "i_to_angle": [2.2032867564648795, -0.33825082560260455, -2.5050648313873203]}
      ],
    "fault":
      [
        {"id": 10, "i": [16678.166543596417, 0.0, 16678.166543596417], "i_angle": [0.5401949334166143, -0.0, -2.601397720173179]}
      ],
    "source":
      [
        {"id": 4, "i": [916.8452475272559, 1014.5978181509402, 1283.885859137975], "i_angle": [1.44228926196812, -0.24792858378160268, -2.6013977201731793]}
      ]
  }
,
  {
    "node":
      [
        {"id": 0, "u_pu": [0.9673876629008663, 0.9549178929785012, 0.8339083271798209], "u_angle": [0.07805179433767481, -2.1662021849445576, 2.110991260211511], "u": [83778.22913798073, 82698.3153847692, 72218.57957651102]},
        {"id": 1, "u_pu": [0.5000056291359047, 1.0000112582718093, 0.5000056291359047], "u_angle": [0.5235966077161087, -2.6179960458736837, 0.5235966077161094], "u": [2886.7838457794282, 5773.567691558856, 2886.7838457794282]},
        {"id": 2, "u_pu": [0.9752041366223957, 1.0000013163689014, 0.980621933116137], "u_angle": [-0.5151708928851972, -2.6179939764293376, 1.553056015198294], "u": [5630.343707937768, 5773.510291955654, 5661.623370578529]},
        {"id": 3, "u_pu": [0.9752078865977175, 1.0000051616973995, 0.9806257039246384], "u_angle": [-0.5151721243942528, -2.6179952079383932, 1.5530547836892383], "u": [5630.365358430383, 5773.532492970088, 5661.645141351562]}
      ],
    "transformer":
      [
        {"id": 6, "i_from": [1718.5277771893477, 740.7061616979057, 2153.4016426516973], "i_from_angle": [-1.4927445324572217, -2.6013782203516915, 1.3358794423451144], "i_to": [11546.917905101322, 20442.447688722834, 28710.39242003104], "i_to_angle": [2.094396238060745, 1.1403715076017291, -1.666947357772916]}
      ],
    "line":
      [
        {"id": 7, "i_from": [30202.78776979061, 0.22079813953139946, 30202.68634435644], "i_from_angle": [0.8272378864336685, -1.220834198139001, -2.3143612607462343], "i_to": [30202.14967448055, 0.9441317795134971, 30202.395336008314], "i_to_angle": [-2.314368179681363, -1.0067843803790792, 0.8272546574430465]},
        {"id": 8, "i_from": [0.5660249740436999, 0.5804176765498911, 0.5691695547561084], "i_from_angle": [1.0556248181894992, -1.0471982653555947, 3.12385172627428], "i_to": [2.821133880760715e-11, 2.7620111656731772e-11, 2.8293876292421683e-11], "i_to_angle": [-1.2257738947498023, 2.9785029211307084, 0.8943804593933095]}
      ],
    "fault":
      [
        {"id": 10, "i": [46439.21174994912, 0.0, 46439.21174994912], "i_angle": [0.7253810291749323, -0.0, -2.416211624414861]}
      ],
    "shunt":
      [
        {"id": 9, "i": [0.0, 0.0, 0.0], "i_angle": [-0.0, -0.0, -0.0]}
      ],
    "source":
      [
        {"id": 4, "i": [641.9405192438862, 641.9453401381859, 1283.8858591379762], "i_angle": [0.5401754334486896, 0.5402144332380979, -2.6013977201731793]},
        {"id": 5, "i": [30201.598349540745, 1.5242559305299486, 30202.01756149075], "i_angle": [0.8272202304507148, 2.1194227508267383, -2.314323900375959]}
      ]
  }
,
  {
    "node":
      [
        {"id": 0, "u_pu": [0.9673876629008663, 0.9549178929785012, 0.8339083271798209], "u_angle": [0.07805179433767481, -2.1662021849445576, 2.110991260211511], "u": [83778.22913798073, 82698.3153847692, 72218.57957651102]},
        {"id": 1, "u_pu": [0.5000056291359047, 1.0000112582718093, 0.5000056291359047], "u_angle": [0.5235966077161087, -2.6179960458736837, 0.5235966077161094], "u": [2886.7838457794282, 5773.567691558856, 2886.7838457794282]},
        {"id": 2, "u_pu": [0.9752041366223957, 1.0000013163689014, 0.980621933116137], "u_angle": [-0.5151708928851972, -2.6179939764293376, 1.553056015198294], "u": [5630.343707937768, 5773.510291955654, 5661.623370578529]},
        {"id": 3, "u_pu": [0.9752078865977175, 1.0000051616973995, 0.9806257039246384], "u_angle": [-0.5151721243942528, -2.6179952079383932, 1.5530547836892383], "u": [5630.365358430383, 5773.532492970088, 5661.645141351562]}
      ],
    "transformer":
      [
        {"id": 6, "i_from": [1718.5277771893477, 740.7061616979057, 2153.4016426516973], "i_from_angle": [-1.4927445324572217, -2.6013782203516915, 1.3358794423451144], "i_to": [11546.917905101322, 20442.447688722834, 28710.39242003104], "i_to_angle": [2.094396238060745, 1.1403715076017291, -1.666947357772916]}
      ],
    "line":
      [
        {"id": 7, "i_from": [30202.78776979061, 0.22079813953139946, 30202.68634435644], "i_from_angle": [0.8272378864336685, -1.220834198139001, -2.3143612607462343], "i_to": [30202.14967448055, 0.9441317795134971, 30202.395336008314], "i_to_angle": [-2.314368179681363, -1.0067843803790792, 0.8272546574430465]},
        {"id": 8, "i_from": [0.5660249740436999, 0.5804176765498911, 0.5691695547561084], "i_from_angle": [1.0556248181894992, -1.0471982653555947, 3.12385172627428], "i_to": [2.821133880760715e-11, 2.7620111656731772e-11, 2.8293876292421683e-11], "i_to_angle": [-1.2257738947498023, 2.9785029211307084, 0.8943804593933095]}
      ],
    "fault":
      [
        {"id": 10, "i": [46439.21174994912, 0.0, 46439.21174994912], "i_angle": [0.7253810291749323, -0.0, -2.416211624414861]}
      ],
    "source":
      [
        {"id": 4, "i": [641.9405192438862, 641.9453401381859, 1283.8858591379762], "i_angle": [0.5401754334486896, 0.5402144332380979, -2.6013977201731793]},
        {"id": 5, "i": [30201.598349540745, 1.5242559305299486, 30202.01756149075], "i_angle": [0.8272202304507148, 2.1194227508267383, -2.314323900375959]}
      ]
  }
,
  {
    "node":
      [
        {"id": 0, "u_pu": [0.8843957837125669, 0.8705419063370643, 0.833908327179821], "u_angle": [0.03046721728143641, -2.1209074998406585, 2.110991260211511], "u": [76590.92156949309, 75391.14059468311, 72218.57957651104]},
        {"id": 1, "u_pu": [0.17957189282984456, 0.35914378565968913, 0.17957189282984462], "u_angle": [0.3384105119577907, -2.8031821416320017, 0.33841051195779137], "u": [1036.758806642014, 2073.517613284028, 1036.7588066420142]},
        {"id": 2, "u_pu": [0.005423562661952199, 0.010847125323904395, 0.005423562661952199], "u_angle": [0.5423777235123961, -2.599214930077397, 0.5423777235123961], "u": [31.312953628449055, 62.6259072568981, 31.312953628449055]},
        {"id": 3, "u_pu": [0.0054235835173048075, 0.010847167034609615, 0.005423583517304809], "u_angle": [0.5423764920033406, -2.5992161615864524, 0.5423764920033401], "u": [31.31307403688348, 62.62614807376696, 31.313074036883492]}
      ],
    "transformer":
      [
        {"id": 6, "i_from": [1571.0958270665244, 1170.6897901741602, 1681.6498621308142], "i_from_angle": [-1.5403291095134601, 2.893664069808191, 0.8679275884916784], "i_to": [16528.870106530285, 18275.02804933436, 22792.75103848328], "i_to_angle": [2.1377600559142085, 0.42133083263926036, -1.920048887581565]}
      ],
    "line":
      [
        {"id": 7, "i_from": [6262.48500256507, 12524.970005130142, 6262.485002565073], "i_from_angle": [-0.9287448746463528, 2.212847778943441, -0.9287448746463522], "i_to": [6262.587593385079, 12525.175186770162, 6262.587593385083], "i_to_angle": [2.212842752814908, -0.9287499007748845, 2.212842752814909]},
        {"id": 8, "i_from": [0.0031479274947687806, 0.006295854989759518, 0.0031479274949907372], "i_from_angle": [2.11317343453976, -1.0284192190627879, 2.11317343451425], "i_to": [1.727089441667484e-13, 2.0869043056421321e-13, 1.1784592668312604e-13], "i_to_angle": [2.2032867564648795, -0.33825082560260455, -2.5050648313873203]}
      ],
    "fault":
      [
        {"id": 10, "i": [16678.166543596417, 0.0, 16678.166543596417], "i_angle": [0.5401949334166143, -0.0, -2.601397720173179]}
      ],
    "shunt":
      [
        {"id": 9, "i": [0.0, 0.0, 0.0], "i_angle": [-0.0, -0.0, -0.0]}
      ],
    "source":
      [
        {"id": 4, "i": [916.8452475272559, 1014.5978181509402, 1283.885859137975], "i_angle": [1.44228926196812, -0.24792858378160268, -2.6013977201731793]}
      ]
  }
,
  {
    "node":
      [
        {"id": 0, "u_pu": [0.8843957837125669, 0.8705419063370643, 0.833908327179821], "u_angle": [0.03046721728143641, -2.1209074998406585, 2.110991260211511], "u": [76590.92156949309, 75391.14059468311, 72218.57957651104]},
        {"id": 1, "u_pu": [0.17957189282984456, 0.35914378565968913, 0.17957189282984462], "u_angle": [0.3384105119577907, -2.8031821416320017, 0.33841051195779137], "u": [1036.758806642014, 2073.517613284028, 1036.7588066420142]},
        {"id": 2, "u_pu": [0.005423562661952199, 0.010847125323904395, 0.005423562661952199], "u_angle": [0.5423777235123961, -2.599214930077397, 0.5423777235123961], "u": [31.312953628449055, 62.6259072568981, 31.312953628449055]},
        {"id": 3, "u_pu": [0.0054235835173048075, 0.010847167034609615, 0.005423583517304809], "u_angle": [0.5423764920033406, -2.5992161615864524, 0.5423764920033401], "u": [31.31307403688348, 62.62614807376696, 31.313074036883492]}
      ],
    "transformer":
      [
        {"id": 6, "i_from": [1571.0958270665244, 1170.6897901741602, 1681.6498621308142], "i_from_angle": [-1.5403291095134601, 2.893664069808191, 0.8679275884916784], "i_to": [16528.870106530285, 18275.02804933436, 22792.75103848328], "i_to_angle": [2.1377600559142085, 0.42133083263926036, -1.920048887581565]}
      ],
    "line":
      [
        {"id": 7, "i_from": [6262.48500256507, 12524.970005130142, 6262.485002565073], "i_from_angle": [-0.9287448746463528, 2.212847778943441, -0.9287448746463522], "i_to": [6262.587593385079, 12525.175186770162, 6262.587593385083], "i_to_angle": [2.212842752814908, -0.9287499007748845, 2.212842752814909]},
        {"id": 8, "i_from": [0.0031479274947687806, 0.006295854989759518, 0.0031479274949907372], "i_from_angle": [2.11317343453976, -1.0284192190627879, 2.11317343451425], "i_to": [1.727089441667484e-13, 2.0869043056421321e-13, 1.1784592668312604e-13], "i_to_angle": [2.2032867564648795, -0.33825082560260455, -2.5050648313873203]}
      ],
    "fault":
      [
        {"id": 10, "i": [16678.166543596417, 0.0, 16678.166543596417], "i_angle": [0.5401949334166143, -0.0, -2.601397720173179]}
      ],
    "source":
      [
        {"id": 4, "i": [916.8452475272559, 1014.5978181509402, 1283.885859137975], "i_angle": [1.44228926196812, -0.24792858378160268, -2.6013977201731793]}
      ]
  }
,
  {
    "node":
      [
        {"id": 0, "u_pu": [0.9673876629008663, 0.9549178929785012, 0.8339083271798209], "u_angle": [0.07805179433767481, -2.1662021849445576, 2.110991260211511], "u": [83778.22913798073, 82698.3153847692, 72218.57957651102]},
        {"id": 1, "u_pu": [0.5000056291359047, 1.0000112582718093, 0.5000056291359047], "u_angle": [0.5235966077161087, -2.6179960458736837, 0.5235966077161094], "u": [2886.7838457794282, 5773.567691558856, 2886.7838457794282]},
        {"id": 2, "u_pu": [0.9752041366223957, 1.0000013163689014, 0.980621933116137], "u_angle": [-0.5151708928851972, -2.6179939764293376, 1.553056015198294], "u": [5630.343707937768, 5773.510291955654, 5661.623370578529]},
        {"id": 3, "u_pu": [0.9752078865977175, 1.0000051616973995, 0.9806257039246384], "u_angle": [-0.5151721243942528, -2.6179952079383932, 1.5530547836892383], "u": [5630.365358430383, 5773.532492970088, 5661.645141351562]}
      ],
    "transformer":
      [
        {"id": 6, "i_from": [1718.5277771893477, 740.7061616979057, 2153.4016426516973], "i_from_angle": [-1.4927445324572217, -2.6013782203516915, 1.3358794423451144], "i_to": [11546.917905101322, 20442.447688722834, 28710.39242003104], "i_to_angle": [2.094396238060745, 1.1403715076017291, -1.666947357772916]}
      ],
    "line":
      [
        {"id": 7, "i_from": [30202.78776979061, 0.22079813953139946, 30202.68634435644], "i_from_angle": [0.8272378864336685, -1.220834198139001, -2.3143612607462343], "i_to": [30202.14967448055, 0.9441317795134971, 30202.395336008314], "i_to_angle": [-2.314368179681363, -1.0067843803790792, 0.8272546574430465]},
        {"id": 8, "i_from": [0.5660249740436999, 0.5804176765498911, 0.5691695547561084], "i_from_angle": [1.0556248181894992, -1.0471982653555947, 3.12385172627428], "i_to": [2.821133880760715e-11, 2.7620111656731772e-11, 2.8293876292421683e-11], "i_to_angle": [-1.2257738947498023, 2.9785029211307084, 0.8943804593933095]}
      ],
    "fault":
      [
        {"id": 10, "i": [46439.21174994912, 0.0, 46439.21174994912], "i_angle": [0.7253810291749323, -0.0, -2.416211624414861]}
      ],
    "shunt":
      [
        {"id": 9, "i": [0.0, 0.0, 0.0], "i_angle": [-0.0, -0.0, -0.0]}
      ],
    "source":
      [
        {"id": 4, "i": [641.9405192438862, 641.9453401381859, 1283.8858591379762], "i_angle": [0.5401754334486896, 0.5402144332380979, -2.6013977201731793]},
        {"id": 5, "i": [30201.598349540745, 1.5242559305299486, 30202.01756149075], "i_angle": [0.8272202304507148, 2.1194227508267383, -2.314323900375959]}
      ]
  }
,
  {
    "node":
      [
        {"id": 0, "u_pu": [0.9673876629008663, 0.9549178929785012, 0.8339083271798209], "u_angle": [0.07805179433767481, -2.1662021849445576, 2.110991260211511], "u": [83778.22913798073, 82698.3153847692, 72218.57957651102]},
        {"id": 1, "u_pu": [0.5000056291359047, 1.0000112582718093, 0.5000056291359047], "u_angle": [0.5235966077161087, -2.6179960458736837, 0.5235966077161094], "u": [2886.7838457794282, 5773.567691558856, 2886.7838457794282]},
        {"id": 2, "u_pu": [0.9752041366223957, 1.0000013163689014, 0.980621933116137], "u_angle": [-0.5151708928851972, -2.6179939764293376, 1.553056015198294], "u": [5630.343707937768, 5773.510291955654, 5661.623370578529]},
        {"id": 3, "u_pu": [0.9752078865977175, 1.0000051616973995, 0.9806257039246384], "u_angle": [-0.5151721243942528, -2.6179952079383932, 1.5530547836892383], "u": [5630.365358430383, 5773.532492970088, 5661.645141351562]}
      ],
    "transformer":
      [
        {"id": 6, "i_from": [1718.5277771893477, 740.7061616979057, 2153.4016426516973], "i_from_angle": [-1.4927445324572217, -2.6013782203516915, 1.3358794423451144], "i_to": [11546.917905101322, 20442.447688722834, 28710.39242003104], "i_to_angle": [2.094396238060745, 1.1403715076017291, -1.666947357772916]}
      ],
    "line":
      [
        {"id": 7, "i_from": [30202.78776979061, 0.22079813953139946, 30202.68634435644], "i_from_angle": [0.8272378864336685, -1.220834198139001, -2.3143612607462343], "i_to": [30202.14967448055, 0.9441317795134971, 30202.395336008314], "i_to_angle": [-2.314368179681363, -1.0067843803790792, 0.8272546574430465]},
        {"id": 8, "i_from": [0.5660249740436999, 0.5804176765498911, 0.5691695547561084], "i_from_angle": [1.0556248181894992, -1.0471982653555947, 3.12385172627428], "i_to": [2.821133880760715e-11, 2.7620111656731772e-11, 2.8293876292421683e-11], "i_to_angle": [-1.2257738947498023, 2.9785029211307084, 0.8943804593933095]}
      ],
    "fault":
      [
        {"id": 10, "i": [46439.21174994912, 0.0, 46439.21174994912], "i_angle": [0.7253810291749323, -0.0, -2.416211624414861]}
      ],
    "source":
      [
        {"id": 4, "i": [641.9405192438862, 641.9453401381859, 1283.8858591379762], "i_angle": [0.5401754334486896, 0.5402144332380979, -2.6013977201731793]},
        {"id": 5, "i": [30201.598349540745, 1.5242559305299486, 30202.01756149075], "i_angle": [0.8272202304507148, 2.1194227508267383, -2.314323900375959]}
      ]
  }
,
  {
    "node":
      [
        {"id": 0, "u_pu": [0.8843957837125669, 0.8705419063370643, 0.833908327179821], "u_angle": [0.03046721728143641, -2.1209074998406585, 2.110991260211511], "u": [76590.92156949309, 75391.14059468311, 72218.57957651104]},
        {"id": 1, "u_pu": [0.17957189282984456, 0.35914378565968913, 0.17957189282984462], "u_angle": [0.3384105119577907, -2.8031821416320017, 0.33841051195779137], "u": [1036.758806642014, 2073.517613284028, 1036.7588066420142]},
        {"id": 2, "u_pu": [0.005423562661952199, 0.010847125323904395, 0.005423562661952199], "u_angle": [0.5423777235123961, -2.599214930077397, 0.5423777235123961], "u": [31.312953628449055, 62.6259072568981, 31.312953628449055]},
        {"id": 3, "u_pu": [0.0054235835173048075, 0.010847167034609615, 0.005423583517304809], "u_angle": [0.5423764920033406, -2.5992161615864524, 0.5423764920033401], "u": [31.31307403688348, 62.62614807376696, 31.313074036883492]}
      ],
    "transformer":
      [
        {"id": 6, "i_from": [1571.0958270665244, 1170.6897901741602, 1681.6498621308142], "i_from_angle": [-1.5403291095134601, 2.893664069808191, 0.8679275884916784], "i_to": [16528.870106530285, 18275.02804933436, 22792.75103848328], "i_to_angle": [2.1377600559142085, 0.42133083263926036, -1.920048887581565]}
      ],
    "line":
      [
        {"id": 7, "i_from": [6262.48500256507, 12524.970005130142, 6262.485002565073], "i_from_angle": [-0.9287448746463528, 2.212847778943441, -0.9287448746463522], "i_to": [6262.587593385079, 12525.175186770162, 6262.587593385083], "i_to_angle": [2.212842752814908, -0.9287499007748845, 2.212842752814909]},
        {"id": 8, "i_from": [0.0031479274947687806, 0.006295854989759518, 0.0031479274949907372], "i_from_angle": [2.11317343453976, -1.0284192190627879, 2.11317343451425], "i_to": [1.727089441667484e-13, 2.0869043056421321e-13, 1.1784592668312604e-13], "i_to_angle": [2.2032867564648795, -0.33825082560260455, -2.5050648313873203]}
      ],
    "fault":
      [
        {"id": 10, "i": [16678.166543596417, 0.0, 16678.166543596417], "i_angle": [0.5401949334166143, -0.0, -2.601397720173179]}
      ],
    "shunt":
      [
        {"id": 9, "i": [0.0, 0.0, 0.0], "i_angle": [-0.0, -0.0, -0.0]}
      ],
    "source":
      [
        {"id": 4, "i": [916.8452475272559, 1014.5978181509402, 1283.885859137975], "i_angle": [1.44228926196812, -0.24792858378160268, -2.6013977201731793]}
      ]
  }
,
  {
    "node":
      [
        {"id": 0, "u_pu": [0.8843957837125669, 0.8705419063370643, 0.833908327179821], "u_angle": [0.03046721728143641, -2.1209074998406585, 2.110991260211511], "u": [76590.92156949309, 75391.14059468311, 72218.57957651104]},
        {"id": 1, "u_pu": [0.17957189282984456, 0.35914378565968913, 0.17957189282984462], "u_angle": [0.3384105119577907, -2.8031821416320017, 0.33841051195779137], "u": [1036.758806642014, 2073.517613284028, 1036.7588066420142]},
        {"id": 2, "u_pu": [0.005423562661952199, 0.010847125323904395, 0.005423562661952199], "u_angle": [0.5423777235123961, -2.599214930077397, 0.5423777235123961], "u": [31.312953628449055, 62.6259072568981, 31.312953628449055]},
        {"id": 3, "u_pu": [0.0054235835173048075, 0.010847167034609615, 0.005423583517304809], "u_angle": [0.5423764920033406, -2.5992161615864524, 0.5423764920033401], "u": [31.31307403688348, 62.62614807376696, 31.313074036883492]}
      ],
    "transformer":
      [
        {"id": 6, "i_from": [1571.0958270665244, 1170.6897901741602, 1681.6498621308142], "i_from_angle": [-1.5403291095134601, 2.893664069808191, 0.8679275884916784], "i_to": [16528.870106530285, 18275.02804933436, 22792.75103848328], "i_to_angle": [2.1377600559142085, 0.42133083263926036, -1.920048887581565]}
      ],
    "line":
      [
        {"id": 7, "i_from": [6262.48500256507, 12524.970005130142, 6262.485002565073], "i_from_angle": [-0.9287448746463528, 2.212847778943441, -0.9287448746463522], "i_to": [6262.587593385079, 12525.175186770162, 6262.587593385083], "i_to_angle": [2.212842752814908, -0.9287499007748845, 2.212842752814909]},
        {"id": 8, "i_from": [0.0031479274947687806, 0.006295854989759518, 0.0031479274949907372], "i_from_angle": [2.11317343453976, -1.0284192190627879, 2.11317343451425], "i_to": [1.727089441667484e-13, 2.0869043056421321e-13, 1.1784592668312604e-13], "i_to_angle": [2.2032867564648795, -0.33825082560260455, -2.5050648313873203]}
      ],
    "fault":
      [
        {"id": 10, "i": [16678.166543596417, 0.0, 16678.166543596417], "i_angle": [0.5401949334166143, -0.0, -2.601397720173179]}
      ],
    "source":
      [
        {"id": 4, "i": [916.8452475272559, 1014.5978181509402, 1283.885859137975], "i_angle": [1.44228926196812, -0.24792858378160268, -2.6013977201731793]}
      ]
  }
,
  {
    "node":
      [
        {"id": 0, "u_pu": [0.9682937882503522, 0.9819023215775382, 0.8963475954005791], "u_angle": [0.04246806760953227, -2.144085903547113, 2.0772994378455283], "u": [83856.7018951475, 85035.23545210653, 77625.97882379973]},
        {"id": 1, "u_pu": [0.5039758513672393, 1.0000112582718093, 0.7085250818780489], "u_angle": [-0.20506626263182473, -2.6179960458736837, 1.01701245903611], "u": [2909.7059345194643, 5773.567691558856, 4090.6714674989316]},
...